tools/germany_pcm_case_related/raw_sources/osm_europe_grid/converters.csv
converter_id,bus0,bus1,voltage,p_nom,geometry
conv-relation/10629005,relation/10629005,relation/10629005-400,300,700,'LINESTRING (15.8541784059845 56.76732184567534, 15.85417841 56.76732185)'
conv-relation/10695345,relation/10695345,relation/10695345-400,400,1000,'LINESTRING (1.34653130045137 51.31010054490359, 1.34666458 51.31020638)'
conv-relation/11981383,relation/11981383,relation/8894066-420,450,700,'LINESTRING (6.8661568391267895 58.28250865848761, 6.84839074 58.27635466)'
conv-relation/12832053,relation/12832053,relation/12832053-420,515,1400,'LINESTRING (6.654928160547617 59.530194869729044, 6.65477856 59.5298075)'
conv-relation/14939275,relation/14939275,relation/14939275-400,450,600,'LINESTRING (14.840064437359892 56.15303706800383, 14.84006444 56.15303707)'
conv-relation/7928148,relation/7928148,relation/7928148-420,500,1640,'LINESTRING (7.899684218401868 58.25972533676882, 7.89985899 58.25982347)'
conv-relation/8890887,relation/8890887,relation/18292370-420,525,1400,'LINESTRING (6.754430988350662 58.66905045142371, 6.75369328 58.66981083)'
conv-way/103386958,way/103386958,way/103386958-380,400,500,'LINESTRING (18.130836318442434 40.16452968821595, 18.1308649 40.16439563)'
conv-way/1078532568,way/1078532568,way/1078532568-400,525,1400,'LINESTRING (-0.2364999942172544 52.920992852182344, -0.236634 52.92088524)'
conv-way/109189896,way/109189896,way/143783006-400,450,1000,'LINESTRING (0.7161575572786378 51.44049830078341, 0.71538287 51.44476374)'
conv-way/1101832649,way/1101832649,way/1101832649-400,525,1400,'LINESTRING (9.167976905287395 55.505082075630234, 9.16700681 55.50457726)'
conv-way/1158716725,way/1158716725,way/339704025-380,500,1000,'LINESTRING (12.807095871398033 41.430021018019964, 12.80742165 41.42967949)'
conv-way/1258230090,way/1258230090,way/1258230062-380,320,1000,'LINESTRING (5.66767631877877 50.75299747658887, 5.66806755 50.75441745)'
conv-way/1262323677,way/1262323677,way/1262323677-400,150,700,'LINESTRING (24.55151884975428 60.203800393687196, 24.55062113 60.20487626)'
conv-way/1262971878,way/1262971878,way/495624573-275,320,800,'LINESTRING (-3.4521646312538867 58.479987860253935, -3.45172033 58.47925149)'
conv-way/1265541077,way/1265541077,way/281379470-400,300,1200,'LINESTRING (14.655430907089961 57.74799823027537, 14.65642764 57.74873715)'
conv-way/1271288346,way/1271288346,way/1271288345-400,270,2000,'LINESTRING (1.7820196329028115 50.90347807360708, 1.78345952 50.90280566)'
conv-way/1271587268,way/1271587268,way/1271587263-400,350,940,'LINESTRING (9.566368138932917 56.47966984843764, 9.56905693 56.48005289)'
conv-way/1271587272,way/1271587272,way/1271587263-400,500,700,'LINESTRING (9.564198051393532 56.478562110098224, 9.56905693 56.48005289)'
conv-way/1275744416,way/1275744416,way/41906390-400,500,800,'LINESTRING (17.06373092827985 60.425172985323655, 17.06168089 60.42498572)'
conv-way/1275744419,way/1275744419,way/26501426-400,500,1300,'LINESTRING (21.626077025170257 61.15204766844002, 21.62390054 61.15239102)'
conv-way/1302589312,way/1302589312,way/28390455-400,450,600,'LINESTRING (13.146393787242053 55.50075713190203, 13.14527602 55.50208802)'
conv-way/131323212,way/131323212,way/347643820-220,250,400,'LINESTRING (2.506371701063607 39.53389638665294, 2.50921459 39.53623416)'
conv-way/136762727,way/136762727,way/1156702013-380,200,300,'LINESTRING (8.713929530524116 40.65208830353866, 8.71241088 40.65231548)'
conv-way/136789074,way/136789074,way/100253768-380,200,300,'LINESTRING (10.69435403947908 43.05188136384401, 10.69676817 43.05187484)'
conv-way/137050527,way/137050527,way/137050527-275,500,500,'LINESTRING (-5.770151552693588 54.84301675886533, -5.77002657 54.84313013)'
conv-way/1384028957,way/1384028957,way/1384028953-400,400,600,'LINESTRING (10.506795367518944 55.36705048591617, 10.50546156 55.36601882)'
conv-way/140248140,way/140248140,way/279842937-400,150,260,'LINESTRING (16.64765224409412 57.728335826479515, 16.65307895 57.41588187)'
conv-way/140248147,way/140248147,way/80702333-400,400,500,'LINESTRING (18.13618945001536 60.404099712220564, 18.15801242 60.39879219)'
conv-way/142321228,way/142321228,way/26953215-400,400,600,'LINESTRING (12.007610327774492 55.450251070523564, 12.00624562 55.45159892)'
conv-way/1451345383,way/1451345383,way/1346380309-400,300,680,'LINESTRING (12.110417603728928 57.60675496832211, 12.11060016 57.60684747)'
conv-way/148382435,way/148382435,way/148382435-275,500,500,'LINESTRING (-4.981158604786149 55.0695270170319, -4.98103086 55.06963963)'
conv-way/156435509,way/156435509,way/77654729-400,250,400,'LINESTRING (-0.2354476169104258 39.64108481624496, -0.23590717 39.64174031)'
conv-way/158601617,way/158601617,way/942640207-380,450,700,'LINESTRING (6.866278184478232 53.43461384255264, 6.86857627 53.4374004)'
conv-way/160792651,way/160792651,way/160792651-400,400,600,'LINESTRING (11.315228766533485 55.53177049099671, 11.31522877 55.53177049)'
conv-way/203225567,way/203225567,way/409439916-380,500,1000,'LINESTRING (8.306397059496138 40.84109465895279, 8.30561533 40.84390148)'
conv-way/23281217,way/23281217,way/1271295337-400,270,2000,'LINESTRING (0.9766471282627056 51.1050906644079, 0.97491881 51.10593873)'
conv-way/235724487,way/235724487,way/1265541078-400,300,1200,'LINESTRING (13.602876072706641 55.831431084374486, 13.60337346 55.83218973)'
conv-way/255314292,way/255314292,relation/18085709-400,450,600,'LINESTRING (16.890379273666753 54.50215617505337, 16.89178745 54.50134871)'
conv-way/256334221,way/256334221,way/340399370-400,320,2000,'LINESTRING (2.944251999014125 42.230385387657805, 2.94666 42.2300526)'
conv-way/260836695,way/260836695,way/254158424-400,200,500,'LINESTRING (-6.567658247986823 53.47113805404117, -6.56948068 53.47481858)'
conv-way/26619335,way/26619335,way/26619335-400,450,650,'LINESTRING (25.367370113411138 60.377642024032156, 25.36737011 60.37764202)'
conv-way/275466323,way/275466323,way/275466323-380,450,600,'LINESTRING (10.80253426865206 53.89615978383309, 10.80179507 53.89753912)'
conv-way/297840585,way/297840585,way/297840585-400,600,2250,'LINESTRING (-4.894821189854908 55.71803677232739, -4.89471193 55.71791699)'
conv-way/312728271,way/312728271,way/312728271-400,320,2000,'LINESTRING (2.801685512720446 42.73094375856438, 2.80387556 42.73227859)'
conv-way/375626500,way/375626500,way/1274396508-400,600,2250,'LINESTRING (-3.0325194685742174 53.2302156908747, -3.0773981 53.23026451)'
conv-way/500788534,way/500788534,virtual_way/1411883330:1-400,400,1000,'LINESTRING (3.209717249275413 51.26506861267785, 3.2098546 51.26517232)'
conv-way/525964617,way/525964617,way/525964629-380,525,1400,'LINESTRING (9.344336160385257 53.919202900609996, 9.34684199 53.92325646)'
conv-way/536905500,way/536905500,way/1274396508-400,200,500,'LINESTRING (-3.0503711247013054 53.23659000909319, -3.0773981 53.23026451)'
conv-way/568527671,way/568527671,way/568527671-400,320,1200,'LINESTRING (-2.9492358149126363 57.52130358772209, -2.94834327 57.52304835)'
conv-way/577074555,way/577074555,relation/17239840-380,500,1200,'LINESTRING (14.125123625222603 42.394891128388224, 14.12977483 42.40331892)'
conv-way/636630368,way/636630368,virtual_way/636635194:1-400,320,1000,'LINESTRING (-1.1944667534205344 50.818128178480265, -1.19434053 50.81823678)'
conv-way/642490160,way/642490160,way/310502642-400,515,1400,'LINESTRING (-1.5403565973287965 55.146512612657816, -1.5311926 55.14114045)'
conv-way/655858864,way/655858864,way/942640207-380,320,700,'LINESTRING (6.867218303119649 53.43560033071676, 6.86857627 53.4374004)'
conv-way/753113423,way/753113423,way/753113423-400,320,1000,'LINESTRING (-0.262116949775399 49.110757695414016, -0.2637673 49.10913925)'
conv-way/775577827,way/775577827,virtual_relation/19874522:0-400,320,1000,'LINESTRING (1.7805598982000543 50.92012451897264, 1.78363526 50.92039207)'
conv-way/775577829,way/775577829,way/91233446-400,320,1000,'LINESTRING (1.1448619993754872 51.098390488402984, 1.14754242 51.09807995)'
conv-way/870598507,way/870598507,way/870598507-380,320,1000,'LINESTRING (6.453021949156052 50.87140165653226, 6.45708132 50.87180593)'
conv-way/920127890,way/920127890,way/23135714-380,450,1000,'LINESTRING (4.021802153520163 51.95696873576031, 4.02275905 51.95588668)'
conv-way/940919943,way/940919943,way/940919943-380,400,600,'LINESTRING (12.215573759923306 54.10020865937484, 12.21416198 54.10008913)'
conv-way/98216482,way/98216482,way/98216482-400,300,680,'LINESTRING (10.089569803415861 57.06301607333713, 10.08974467 57.0631113)'
conv-way/99220741,way/99220741,way/99220741-400,320,700,'LINESTRING (8.703612469365575 55.53016473566834, 8.70598757 55.53086634)'
